Circuit: * C:\Users\Vlad\Desktop\UPB\SEM III\EA\Proiect\Proiect\Folder nou\Draft1.asc

Direct Newton iteration for .op point succeeded.

Date: Mon Jan 24 14:30:53 2022
Total elapsed time: 0.028 seconds.

tnom = 27
temp = 27
method = modified trap
totiter = 101
traniter = 98
tranpoints = 50
accept = 48
rejected = 2
matrix size = 18
fillins = 21
solver = Normal
Matrix Compiler1: 1.72 KB object code size  0.4/0.2/[0.1]
Matrix Compiler2: 2.08 KB object code size  0.2/0.3/[0.2]

