Circuit: * C:\Users\Vlad\Desktop\UPB\SEM III\EA\Laboratoare\EA LAB 3\tbip_ltspice_circuits\colector_comun.asc

Direct Newton iteration for .op point succeeded.

Date: Thu Dec 02 16:40:48 2021
Total elapsed time: 0.069 seconds.

tnom = 27
temp = 27
method = modified trap
totiter = 3505
traniter = 3500
tranpoints = 1748
accept = 1357
rejected = 391
matrix size = 11
fillins = 0
solver = Normal
Matrix Compiler1: 610 bytes object code size  0.2/0.1/[0.1]
Matrix Compiler2: 835 bytes object code size  0.1/0.1/[0.1]

