Circuit: * C:\Users\Vlad\Desktop\UPB\SEM III\EA\Laboratoare\EA LAB 3\tbip_ltspice_circuits\sarcina_distribuita.asc

Direct Newton iteration for .op point succeeded.

Date: Thu Dec 02 16:27:55 2021
Total elapsed time: 0.064 seconds.

tnom = 27
temp = 27
method = modified trap
totiter = 3523
traniter = 3518
tranpoints = 1752
accept = 1360
rejected = 392
matrix size = 11
fillins = 0
solver = Normal
Matrix Compiler1: 610 bytes object code size  0.1/0.1/[0.1]
Matrix Compiler2: off  [0.1]/0.1/0.1

