Circuit: * C:\Users\Vlad\Desktop\UPB\SEM III\EA\Laboratoare\EA LAB 5\Simulari_lab_5_AO\inverting_opamp.asc

Direct Newton iteration for .op point succeeded.

Date: Fri Jan 07 21:51:35 2022
Total elapsed time: 0.067 seconds.

tnom = 27
temp = 27
method = modified trap
totiter = 2533
traniter = 2523
tranpoints = 1127
accept = 1081
rejected = 46
matrix size = 12
fillins = 2
solver = Normal
Matrix Compiler1: 660 bytes object code size  0.1/0.1/[0.1]
Matrix Compiler2: 1.17 KB object code size  0.1/1.1/[0.1]

