Circuit: * C:\Users\Vlad\Desktop\UPB\SEM III\EA\Laboratoare\EA LAB 5\Simulari_lab_5_AO\non-inverting_opamp.asc

Direct Newton iteration for .op point succeeded.

Date: Fri Jan 07 21:58:18 2022
Total elapsed time: 0.042 seconds.

tnom = 27
temp = 27
method = modified trap
totiter = 2649
traniter = 2639
tranpoints = 1177
accept = 1110
rejected = 67
matrix size = 12
fillins = 2
solver = Normal
Matrix Compiler1: 660 bytes object code size  0.1/0.1/[0.1]
Matrix Compiler2: off  [0.1]/0.1/0.1

