Circuit: * C:\Users\Vlad\Desktop\UPB\SEM III\EA\Laboratoare\EA LAB 4\ea_lab_4\ad_single_ended_diff.asc

Direct Newton iteration for .op point succeeded.

Date: Thu Dec 02 21:37:31 2021
Total elapsed time: 0.070 seconds.

tnom = 27
temp = 27
method = modified trap
totiter = 2091
traniter = 2085
tranpoints = 1042
accept = 1042
rejected = 0
matrix size = 22
fillins = 8
solver = Normal
Matrix Compiler1: 1.51 KB object code size  0.2/0.2/[0.1]
Matrix Compiler2: off  [0.1]/1.6/0.1

